data_cif

_audit_creation_method             'generated by GULP'

_symmetry_space_group_name_H-M     'P 1'
_symmetry_Int_Tables_number        1

_cell_length_a                       6.0096
_cell_length_b                       13.2211
_cell_length_c                       106.2480
_cell_angle_alpha                   90.0000
_cell_angle_beta                    93.1350
_cell_angle_gamma                   90.0000

loop_
_atom_site_label
_atom_site_fract_x
_atom_site_fract_y
_atom_site_fract_z
_atom_site_occupancy
  S67   0.740009   0.805393   0.178499   1.000
  S67   0.745688   0.847567   0.138292   1.000
  C51   0.342327   0.920223   0.180674   1.000
  C51   1.165553   0.976080   0.174825   1.000
  C51   1.152994   0.991691   0.161669   1.000
  C51   0.318738   0.952533   0.154184   1.000
  C51   0.166957   0.700431   0.162608   1.000
  C51   0.332750   0.661305   0.155124   1.000
  C51   0.320240   0.676939   0.141968   1.000
  C51   0.143452   0.732785   0.136119   1.000
  C51   0.979647   0.771771   0.143663   1.000
  C51   0.991540   0.755191   0.156714   1.000
  C51   0.814774   0.800440   0.162531   1.000
  C51   0.670884   0.852497   0.154260   1.000
  C51   0.494123   0.897751   0.160077   1.000
  C51   0.506058   0.881193   0.173129   1.000
  H56   0.350882   0.906491   0.190767   1.000
  H56   1.034446   0.005917   0.180422   1.000
  H56   1.012141   0.032376   0.157288   1.000
  H56   0.309453   0.961968   0.144031   1.000
  H56   0.176222   0.690990   0.172760   1.000
  H56   0.473619   0.620635   0.159505   1.000
  H56   0.451396   0.647134   0.136372   1.000
  H56   0.134936   0.746540   0.126026   1.000
  S67   0.213782   0.307663   0.178361   1.000
  S67   0.272138   0.345357   0.138376   1.000
  C51   0.812558   0.193346   0.175283   1.000
  C51   0.644627   0.150319   0.167204   1.000
  C51   0.651620   0.159011   0.153992   1.000
  C51   0.828458   0.210538   0.148668   1.000
  C51   0.657476   0.442457   0.168069   1.000
  C51   0.834329   0.493973   0.162745   1.000
  C51   0.841318   0.502679   0.149533   1.000
  C51   0.673373   0.459669   0.141455   1.000
  C51   0.498606   0.408172   0.146841   1.000
  C51   0.492221   0.399563   0.159965   1.000
  C51   0.308767   0.343980   0.163446   1.000
  C51   0.177148   0.309039   0.153291   1.000
  C51   0.993698   0.253451   0.156772   1.000
  C51   0.987313   0.244847   0.169896   1.000
  H56   0.805754   0.188041   0.185453   1.000
  H56   0.505278   0.111719   0.171187   1.000
  H56   0.517787   0.127359   0.147926   1.000
  H56   0.835139   0.219590   0.138554   1.000
  H56   0.650800   0.433394   0.178183   1.000
  H56   0.968188   0.525595   0.168812   1.000
  H56   0.980689   0.541265   0.145551   1.000
  H56   0.680182   0.464979   0.131284   1.000
