data_cif

_audit_creation_method             'generated by GULP'

_symmetry_space_group_name_H-M     'P 1'
_symmetry_Int_Tables_number        1

_cell_length_a                       6.0247
_cell_length_b                       7.2296
_cell_length_c                       106.2480
_cell_angle_alpha                   90.0000
_cell_angle_beta                    93.1350
_cell_angle_gamma                   90.0000

loop_
_atom_site_label
_atom_site_fract_x
_atom_site_fract_y
_atom_site_fract_z
_atom_site_occupancy
  S67   0.518315   0.909637   0.165244   1.000
  S67   1.102883   0.116945   0.149095   1.000
  C51   0.688815   0.951796   0.190519   1.000
  C51   0.863112   0.008345   0.199068   1.000
  C51   1.061538   0.081874   0.194624   1.000
  C51   1.087791   0.098363   0.181586   1.000
  C51   0.533239   0.928610   0.132750   1.000
  C51   0.559319   0.945558   0.119713   1.000
  C51   0.757662   0.019271   0.115272   1.000
  C51   0.932056   0.075564   0.123822   1.000
  C51   0.903905   0.055979   0.136744   1.000
  C51   0.707010   0.984599   0.141163   1.000
  C51   0.713097   0.979580   0.154316   1.000
  C51   0.908230   0.046716   0.160022   1.000
  C51   0.914109   0.042145   0.173175   1.000
  C51   0.717132   0.970954   0.177596   1.000
  H56   0.534915   0.893971   0.193691   1.000
  H56   0.844696   0.995380   0.209143   1.000
  H56   0.195058   0.125840   0.201255   1.000
  H56   0.239228   0.153007   0.177967   1.000
  H56   0.381892   0.873732   0.136365   1.000
  H56   0.425733   0.901790   0.113080   1.000
  H56   0.775935   0.032581   0.105197   1.000
  H56   1.085903   0.133526   0.120653   1.000
  S67   1.018560   0.616982   0.165363   1.000
  S67   0.603158   0.409602   0.149219   1.000
  C51   0.189356   0.575703   0.190637   1.000
  C51   0.363739   0.519438   0.199189   1.000
  C51   0.562087   0.445700   0.194750   1.000
  C51   0.588188   0.428704   0.181714   1.000
  C51   1.033692   0.598267   0.132872   1.000
  C51   1.059956   0.581725   0.119835   1.000
  C51   0.258390   0.508173   0.115393   1.000
  C51   0.432679   0.451653   0.123943   1.000
  C51   0.404354   0.470869   0.136866   1.000
  C51   0.207375   0.542079   0.141285   1.000
  C51   0.213241   0.546711   0.154437   1.000
  C51   0.408366   0.479596   0.160146   1.000
  C51   0.414430   0.484667   0.173299   1.000
  C51   0.217526   0.556063   0.177716   1.000
  H56   1.035502   0.633687   0.193804   1.000
  H56   0.345454   0.532792   0.209263   1.000
  H56   0.695663   0.401952   0.201384   1.000
  H56   0.739545   0.373813   0.178100   1.000
  H56   0.882260   0.652927   0.136490   1.000
  H56   0.926448   0.625668   0.113202   1.000
  H56   0.276814   0.495165   0.105318   1.000
  H56   0.586576   0.393807   0.120773   1.000
